Version 4
SHEET 1 936 680
WIRE 16 -16 -144 -16
WIRE 320 -16 16 -16
WIRE -144 96 -144 -16
WIRE 320 96 320 -16
WIRE 320 96 176 96
WIRE 16 144 16 64
WIRE 16 144 -16 144
WIRE 112 144 16 144
WIRE 320 144 320 96
WIRE 256 192 176 192
WIRE 16 304 16 144
WIRE 16 304 -48 304
WIRE 80 304 16 304
WIRE 320 336 320 320
WIRE 416 336 320 336
WIRE 320 368 320 336
WIRE 16 384 -48 384
WIRE 80 384 16 384
WIRE -144 480 -144 176
WIRE 16 480 16 384
WIRE 16 480 -144 480
WIRE 320 480 320 432
WIRE 320 480 16 480
WIRE -144 512 -144 480
FLAG -144 512 0
FLAG -16 144 Vb
IOPIN -16 144 In
FLAG 416 336 VLED
IOPIN 416 336 Out
SYMBOL battery -144 80 R0
WINDOW 123 0 0 Left 2
WINDOW 3 24 38 Left 2
SYMATTR Value 9V
SYMATTR InstName V1
SYMATTR SpiceLine Rser=0
SYMBOL res 0 -32 R0
SYMATTR InstName R1
SYMATTR Value 20K
SYMBOL res -64 288 R0
SYMATTR InstName Rt
SYMATTR Value {Rp}
SYMBOL res 304 224 R0
SYMATTR InstName R3
SYMATTR Value 150
SYMBOL npn 112 96 R0
SYMATTR InstName Q1
SYMATTR Value 2N2222
SYMBOL npn 256 144 R0
SYMATTR InstName Q2
SYMATTR Value 2N2222
SYMBOL LED 304 368 R0
WINDOW 3 24 64 Left 1
SYMATTR InstName D1
SYMATTR Value WP710A10QBC-2
SYMBOL res 64 288 R0
SYMATTR InstName R2
SYMATTR Value 20K
TEXT 200 608 Left 1 !.lib WP710A10QBC.SP3
TEXT 120 536 Left 2 !.tran 0 1ms 0ms 10us startup
TEXT -208 576 Left 2 !.step param Rp 10K 1000K 100K
