Version 4
SHEET 1 936 680
SYMBOL battery -144 80 R0
WINDOW 123 0 0 Left 2
WINDOW 3 24 38 Left 2
SYMATTR InstName V1
SYMATTR Value 9V
SYMATTR SpiceLine Rser=0
SYMBOL res 0 -32 R0
SYMATTR InstName R1
SYMBOL res 0 176 R0
SYMATTR InstName R2
SYMBOL res 192 80 R0
SYMATTR InstName R3
